Version 4.1
SHEET 1 2864 2700
WIRE 1792 -576 1040 -576
WIRE 1040 -368 1040 -576
WIRE 1040 -368 -32 -368
WIRE -336 -288 -416 -288
WIRE 1280 -288 1280 -400
WIRE 896 -208 880 -208
WIRE 912 -208 896 -208
WIRE 976 -208 912 -208
WIRE 1056 -208 976 -208
WIRE 1280 -208 1056 -208
WIRE 1504 -208 1280 -208
WIRE 1584 -208 1504 -208
WIRE 1632 -208 1584 -208
WIRE -272 -160 -272 -288
WIRE -208 -160 -272 -160
WIRE -192 -160 -208 -160
WIRE -112 -160 -128 -160
WIRE -32 -160 -32 -368
WIRE -32 -160 -112 -160
WIRE 400 -160 -32 -160
WIRE 400 -96 400 -160
WIRE 720 -96 400 -96
WIRE -208 -80 -208 -160
WIRE 400 -64 400 -96
WIRE 400 -64 -64 -64
WIRE 1440 -48 1360 -48
WIRE 1504 -48 1504 -208
WIRE -336 -32 -416 -32
WIRE -272 -32 -272 -160
WIRE 400 -16 400 -64
WIRE 400 -16 16 -16
WIRE 1056 -16 1056 -208
WIRE 1200 -16 1120 -16
WIRE 1520 -16 1360 -16
WIRE 1584 -16 1584 -208
WIRE 1456 16 1360 16
WIRE 1632 16 1632 -208
WIRE 1632 16 1520 16
WIRE -208 32 -208 0
WIRE 400 48 400 -16
WIRE 400 48 352 48
WIRE 976 48 976 -208
WIRE 1200 48 1040 48
WIRE 1408 48 1360 48
WIRE 912 80 912 -208
WIRE 1200 80 976 80
WIRE -112 96 -112 -160
WIRE -112 96 -208 96
WIRE 128 112 80 112
WIRE 480 112 352 112
WIRE 720 112 720 -96
WIRE 896 112 896 -208
WIRE 1104 112 896 112
WIRE 1200 112 1168 112
WIRE 1520 112 1360 112
WIRE 880 144 880 -208
WIRE 1008 144 880 144
WIRE 1200 144 1072 144
WIRE 656 160 576 160
WIRE 128 176 96 176
WIRE 528 176 352 176
WIRE 1200 176 1104 176
WIRE 1792 176 1792 -576
WIRE 1792 176 1360 176
WIRE 16 240 16 -16
WIRE 128 240 16 240
WIRE 384 240 352 240
WIRE -64 256 -64 -64
WIRE 1520 288 1520 112
WIRE 1520 288 1024 288
WIRE 720 304 720 208
WIRE -64 368 -64 336
WIRE -32 368 -64 368
WIRE 480 368 480 112
WIRE 480 368 48 368
WIRE -64 384 -64 368
WIRE 80 432 80 112
WIRE 528 432 528 176
WIRE 528 432 80 432
WIRE 576 432 576 160
WIRE -64 512 -64 464
WIRE 80 512 80 432
WIRE 80 512 -64 512
WIRE 576 544 576 512
WIRE -64 576 -64 512
WIRE 96 624 96 176
WIRE 416 624 96 624
WIRE 576 624 416 624
WIRE 624 624 576 624
WIRE 736 624 704 624
WIRE -64 704 -64 656
WIRE -64 800 -64 768
WIRE 416 848 416 624
WIRE 1024 848 1024 288
WIRE 1024 848 416 848
FLAG -416 -208 0
FLAG -416 48 0
FLAG 720 304 0
FLAG 384 304 0
FLAG -64 800 0
FLAG 128 48 0
FLAG 736 624 0
FLAG 1408 48 0
FLAG 1280 -400 0
FLAG 1200 16 0
FLAG 1200 -48 0
FLAG 1360 144 0
FLAG 1360 80 0
FLAG 1104 176 0
SYMBOL Misc\\NE555 240 144 R0
SYMATTR InstName U1
SYMBOL voltage -416 -304 R0
WINDOW 123 0 0 Left 0
WINDOW 39 0 0 Left 0
SYMATTR InstName V1
SYMATTR Value 9
SYMBOL voltage -416 -48 R0
WINDOW 123 0 0 Left 0
WINDOW 39 0 0 Left 0
SYMATTR InstName V2
SYMATTR Value 5
SYMBOL schottky -336 -272 R270
WINDOW 0 32 32 VTop 2
WINDOW 3 0 32 VBottom 2
SYMATTR InstName D1
SYMBOL schottky -336 -16 R270
WINDOW 0 32 32 VTop 2
WINDOW 3 0 32 VBottom 2
SYMATTR InstName D2
SYMBOL cap -128 -176 R90
WINDOW 0 0 32 VBottom 2
WINDOW 3 32 32 VTop 2
SYMATTR InstName C1
SYMATTR Value 100u
SYMBOL cap -80 704 R0
SYMATTR InstName C2
SYMATTR Value 10u
SYMBOL cap 368 240 R0
SYMATTR InstName C3
SYMATTR Value 10u
SYMBOL res -224 -96 R0
SYMATTR InstName R1
SYMATTR Value 330
SYMBOL LED -224 32 R0
SYMATTR InstName D3
SYMBOL npn 656 112 R0
SYMATTR InstName Q1
SYMATTR Value BC547B
SYMBOL res -80 240 R0
SYMATTR InstName R2
SYMATTR Value 22k
SYMBOL res -80 368 R0
SYMATTR InstName R3
SYMATTR Value 1m
SYMBOL res -80 560 R0
SYMATTR InstName R4
SYMATTR Value 10k
SYMBOL res 64 352 R90
WINDOW 0 0 56 VBottom 2
WINDOW 3 32 56 VTop 2
SYMATTR InstName R5
SYMATTR Value 0
SYMBOL res 560 528 R0
SYMATTR InstName R6
SYMATTR Value 0
SYMBOL res 720 608 R90
WINDOW 0 0 56 VBottom 2
WINDOW 3 32 56 VTop 2
SYMATTR InstName R7
SYMATTR Value 1k
SYMBOL res 560 416 R0
SYMATTR InstName R8
SYMATTR Value 1k
SYMBOL CD4017B 1280 64 R0
SYMATTR InstName U2
SYMBOL LED 1120 -32 R90
WINDOW 0 15 -7 VBottom 2
WINDOW 3 -18 51 VTop 2
SYMATTR InstName D4
SYMBOL LED 1072 128 R90
WINDOW 0 13 -4 VBottom 2
WINDOW 3 -17 35 VTop 2
SYMATTR InstName D6
SYMBOL LED 1520 0 R270
WINDOW 0 16 3 VTop 2
WINDOW 3 0 32 VBottom 2
SYMATTR InstName D7
SYMBOL LED 976 64 R90
WINDOW 0 17 -1 VBottom 2
WINDOW 3 -19 35 VTop 2
SYMATTR InstName D8
SYMBOL LED 1168 96 R90
WINDOW 0 14 -1 VBottom 2
WINDOW 3 -19 32 VTop 2
SYMATTR InstName D9
SYMBOL LED 1440 -32 R270
WINDOW 0 18 -12 VTop 2
WINDOW 3 0 32 VBottom 2
SYMATTR InstName D10
SYMBOL LED 1456 32 R270
WINDOW 0 17 -12 VTop 2
WINDOW 3 0 32 VBottom 2
SYMATTR InstName D11
SYMBOL res 1264 -304 R0
SYMATTR InstName R9
SYMATTR Value 1k
SYMBOL LED 1040 32 R90
WINDOW 0 14 -4 VBottom 2
WINDOW 3 -26 30 VTop 2
SYMATTR InstName D5
TEXT -448 824 Left 2 !.tran 1u
TEXT 360 -320 Left 2 !.options maxstep=1u
TEXT -176 -456 Left 2 !.option noopiter
